
 Starting FDS ...

 MPI Process      0 started on eu-g9-048-2

 Reading FDS input file ...


 Fire Dynamics Simulator

 Current Date     : September 25, 2024  15:58:08
 Revision         : FDS-6.9.1-0-g889da6a-release
 Revision Date    : Sun Apr 7 17:05:06 2024 -0400
 Compiler         : Intel(R) Fortran Intel(R) 64 Compiler Classic for applications running on Intel(R) 64, Version 2021.7.1 Build 20221019_000000
 Compilation Date : Apr 09, 2024 13:24:51

 Number of MPI Processes:  1

 MPI version: 3.1
 MPI library version: Intel(R) MPI Library 2021.6 for Linux* OS


 Job TITLE        : Case: 0, Vent Type:Linear
 Job ID string    : 128

 Time Step:       1, Simulation Time:      0.04 s
 Time Step:       2, Simulation Time:      0.08 s
 Time Step:       3, Simulation Time:      0.11 s
 Time Step:       4, Simulation Time:      0.15 s
 Time Step:       5, Simulation Time:      0.19 s
 Time Step:       6, Simulation Time:      0.23 s
 Time Step:       7, Simulation Time:      0.27 s
 Time Step:       8, Simulation Time:      0.30 s
 Time Step:       9, Simulation Time:      0.34 s
 Time Step:      10, Simulation Time:      0.38 s
 Time Step:      20, Simulation Time:      0.76 s
 Time Step:      30, Simulation Time:      1.14 s
 Time Step:      40, Simulation Time:      1.52 s
 Time Step:      50, Simulation Time:      1.86 s
 Time Step:      60, Simulation Time:      2.20 s
 Time Step:      70, Simulation Time:      2.54 s
 Time Step:      80, Simulation Time:      2.88 s
 Time Step:      90, Simulation Time:      3.22 s
 Time Step:     100, Simulation Time:      3.55 s
 Time Step:     200, Simulation Time:      6.23 s
 Time Step:     300, Simulation Time:      8.67 s
 Time Step:     400, Simulation Time:     11.20 s
 Time Step:     500, Simulation Time:     13.83 s
 Time Step:     600, Simulation Time:     16.34 s
 Time Step:     700, Simulation Time:     19.01 s
 Time Step:     800, Simulation Time:     21.63 s
 Time Step:     900, Simulation Time:     24.23 s
 Time Step:    1000, Simulation Time:     26.68 s
 Time Step:    1100, Simulation Time:     29.02 s
 Time Step:    1200, Simulation Time:     31.52 s
 Time Step:    1300, Simulation Time:     34.11 s
 Time Step:    1400, Simulation Time:     36.65 s
 Time Step:    1500, Simulation Time:     39.13 s
 Time Step:    1600, Simulation Time:     41.67 s
 Time Step:    1700, Simulation Time:     44.13 s
 Time Step:    1800, Simulation Time:     46.70 s
 Time Step:    1900, Simulation Time:     49.06 s
 Time Step:    2000, Simulation Time:     51.50 s
 Time Step:    2100, Simulation Time:     54.06 s
 Time Step:    2200, Simulation Time:     56.37 s
 Time Step:    2300, Simulation Time:     58.82 s
 Time Step:    2400, Simulation Time:     61.28 s
 Time Step:    2500, Simulation Time:     63.85 s
 Time Step:    2600, Simulation Time:     66.45 s
 Time Step:    2700, Simulation Time:     68.90 s
 Time Step:    2800, Simulation Time:     71.49 s
 Time Step:    2900, Simulation Time:     73.97 s
 Time Step:    3000, Simulation Time:     76.64 s
 Time Step:    3100, Simulation Time:     79.08 s
 Time Step:    3200, Simulation Time:     81.79 s
 Time Step:    3300, Simulation Time:     84.35 s
 Time Step:    3400, Simulation Time:     87.06 s
 Time Step:    3500, Simulation Time:     89.74 s
 Time Step:    3600, Simulation Time:     92.44 s
 Time Step:    3700, Simulation Time:     95.00 s
 Time Step:    3800, Simulation Time:     97.65 s
 Time Step:    3893, Simulation Time:    100.00 s

STOP: FDS completed successfully (CHID: 128)
