
 Fire Dynamics Simulator

 Current Date     : February  5, 2025  15:47:56
 Revision         : FDS-6.9.1-0-g889da6a-release
 Revision Date    : Sun Apr 7 17:05:06 2024 -0400
 Compiler         : Intel(R) Fortran Intel(R) 64 Compiler Classic for applications running on Intel(R) 64, Version 2021.7.1 Build 20221019_000000
 Compilation Date : Apr 09, 2024 13:24:51

 Number of MPI Processes:  1

 MPI version: 3.1
 MPI library version: Intel(R) MPI Library 2021.6 for Linux* OS


 Job TITLE        : Case: 2, Vent Type:Linear
 Job ID string    : 2


 Grid Dimensions, Mesh     1

   Cells in the X Direction            47
   Cells in the Y Direction            47
   Cells in the Z Direction            47
   Number of Grid Cells            103823


 Physical Dimensions, Mesh     1

   Length (m)                       4.000
   Width  (m)                       5.000
   Height (m)                       3.000

 Miscellaneous Parameters

   Total Number of Grid Cells      103823
   Maximum Cell Aspect Ratio        1.667
   Initial Time Step (s)            0.077
   CFL Velocity Norm                    2
   Simulation Start Time (s)          0.0
   Simulation End Time (s)          400.0
   Background Pressure (Pa)     101325.00
   Ambient Temperature (C)          27.00

   3D Cartesian
   VLES Calculation
   Eddy Viscosity Model:  Deardorff (C_DEARDORFF = 0.10)
   Surface INERT Eddy Viscosity Model:  WALE (C_WALE = 0.60)
   Surface supply Eddy Viscosity Model:  WALE (C_WALE = 0.60)
   Surface exhaust Eddy Viscosity Model:  WALE (C_WALE = 0.60)
   Turbulent Prandtl Number:         0.50
   Turbulent Schmidt Number:         0.50


 Pressure solver information

   Solver:                            FFT
   Velocity tolerance (m/s):    4.165E-02
   Press eqn res tol (1/s^2):   2.883E+03
   Max pressure iterations:            10


 Background Stratification

      Z (m)     P_0 (Pa)    TMP_0 (C)
   ------------------------------------
        2.97    101291.08     27.00
        2.90    101291.82     27.00
        2.84    101292.54     27.00
        2.78    101293.27     27.00
        2.71    101294.00     27.00
        2.65    101294.73     27.00
        2.59    101295.45     27.00
        2.52    101296.19     27.00
        2.46    101296.91     27.00
        2.39    101297.65     27.00
        2.33    101298.37     27.00
        2.27    101299.10     27.00
        2.20    101299.83     27.00
        2.14    101300.56     27.00
        2.07    101301.29     27.00
        2.01    101302.02     27.00
        1.95    101302.75     27.00
        1.88    101303.48     27.00
        1.82    101304.21     27.00
        1.76    101304.93     27.00
        1.69    101305.67     27.00
        1.63    101306.39     27.00
        1.56    101307.13     27.00
        1.50    101307.85     27.00
        1.44    101308.58     27.00
        1.37    101309.31     27.00
        1.31    101310.04     27.00
        1.24    101310.77     27.00
        1.18    101311.50     27.00
        1.12    101312.23     27.00
        1.05    101312.96     27.00
        0.99    101313.69     27.00
        0.93    101314.41     27.00
        0.86    101315.15     27.00
        0.80    101315.87     27.00
        0.73    101316.61     27.00
        0.67    101317.34     27.00
        0.61    101318.06     27.00
        0.54    101318.80     27.00
        0.48    101319.52     27.00
        0.41    101320.26     27.00
        0.35    101320.98     27.00
        0.29    101321.71     27.00
        0.22    101322.44     27.00
        0.16    101323.17     27.00
        0.10    101323.90     27.00
        0.03    101324.63     27.00


 Mass Fraction Transformation Matrix to Convert Species Mixtures (Columns) to Primitive Species (Rows)

                         AIR     
   NITROGEN              0.760088
   OXYGEN                0.230276
   CARBON DIOXIDE        0.000590
   WATER VAPOR           0.009046


 Primitive Species Information

   NITROGEN
   Gas Species
   Molecular Weight (g/mol)                28.01340
   Ambient Density (kg/m^3)                1.137
           Enthalpy of Formation (J/kg)  0.000E+00

   OXYGEN
   Gas Species
   Molecular Weight (g/mol)                31.99880
   Ambient Density (kg/m^3)                1.299
           Enthalpy of Formation (J/kg)  0.000E+00

   CARBON DIOXIDE
   Gas Species
   Molecular Weight (g/mol)                44.00950
   Ambient Density (kg/m^3)                1.787
           Enthalpy of Formation (J/kg) -8.941E+06

   WATER VAPOR
   Gas Species
   Molecular Weight (g/mol)                18.01528
   Ambient Density (kg/m^3)                0.731
           Enthalpy of Formation (J/kg) -1.342E+07


 Tracked (Lumped) Species Information

   AIR
   Molecular Weight (g/mol)            28.69856
   Ambient Density (kg/m^3)            1.165
   Initial Mass Fraction               1.000
   Enthalpy of Formation (J/kg)     -1.267E+05

   Sub Species                    Mass Fraction     Mole Fraction
   NITROGEN                       7.600885E-01      7.786791E-01
   OXYGEN                         2.302759E-01      2.065261E-01
   CARBON DIOXIDE                 5.896176E-04      3.844892E-04
   WATER VAPOR                    9.045969E-03      1.441034E-02
 
     Viscosity (kg/m/s) Ambient,  300 K:  1.824E-05
                                  500 K:  2.609E-05
                                 1000 K:  4.123E-05
                                 1500 K:  5.371E-05
                                 2000 K:  6.476E-05
   Therm. Cond. (W/m/K) Ambient,  300 K:  2.599E-02
                                  500 K:  3.812E-02
                                 1000 K:  6.692E-02
                                 1500 K:  9.267E-02
                                 2000 K:  1.156E-01
        Enthalpy (J/kg) Ambient,  300 K: -1.247E+05
                                  500 K:  8.106E+04
                                 1000 K:  6.326E+05
                                 1500 K:  1.233E+06
                                 2000 K:  1.860E+06
    Spec. Heat (J/kg/K) Ambient,  300 K:  1.019E+03
                                  500 K:  1.045E+03
                                 1000 K:  1.160E+03
                                 1500 K:  1.233E+03
                                 2000 K:  1.275E+03
   Diff. Coeff. (m^2/s) Ambient,  300 K:  2.074E-05
                                  500 K:  4.965E-05
                                 1000 K:  1.582E-04
                                 1500 K:  3.099E-04
                                 2000 K:  4.991E-04
 Gibbs Energy Amb. (kJ/mol),  300 K: -6.083E+01
                                  500 K: -1.014E+02
                                 1000 K: -2.124E+02
                                 1500 K: -3.320E+02
                                 2000 K: -4.575E+02


 Material Information


 Surface Conditions

   0 INERT (DEFAULT)

   1 supply
     Wall or Vent Temperature (C)    17.0
     Normal Velocity (m/s)        -0.100
     AIR Mass Fraction         1.000

   2 exhaust
     Normal Velocity (m/s)         0.100
     AIR Mass Fraction         1.000

   3 OPEN
     Passive Vent to Atmosphere

   4 MIRROR
     Symmetry Plane

   5 INTERPOLATED

   6 PERIODIC

   7 HVAC

   8 MASSLESS TRACER

   9 DROPLET

  10 MASSLESS TARGET

  11 PERIODIC FLOW ONLY


 Lagrangian Particle Classes


 Cut-off Density and Temperature

    Minimum Temperature:  -218.3 C
    Maximum Temperature:  2726.8 C
    Minimum Density:  1.165E-01 kg/m3
    Maximum Density:  1.276E+01 kg/m3


 PLOT3D Information

   1 Quantity: TEMPERATURE
   2 Quantity: U-VELOCITY
   3 Quantity: V-VELOCITY
   4 Quantity: W-VELOCITY
   5 Quantity: PRESSURE


 Slice File Information, Mesh     1

   1 Nodes:   0  47   0  47  24  24, Quantity: VELOCITY
   2 Nodes:   0  47   0  47  24  24, Quantity: U-VELOCITY
   3 Nodes:   0  47   0  47  24  24, Quantity: V-VELOCITY
   4 Nodes:   0  47   0  47  24  24, Quantity: W-VELOCITY
   5 Nodes:  24  24   0  47   0  47, Quantity: VELOCITY
   6 Nodes:  24  24   0  47   0  47, Quantity: U-VELOCITY
   7 Nodes:  24  24   0  47   0  47, Quantity: V-VELOCITY
   8 Nodes:  24  24   0  47   0  47, Quantity: W-VELOCITY
   9 Nodes:   0  47  24  24   0  47, Quantity: VELOCITY
  10 Nodes:   0  47  24  24   0  47, Quantity: U-VELOCITY
  11 Nodes:   0  47  24  24   0  47, Quantity: V-VELOCITY
  12 Nodes:   0  47  24  24   0  47, Quantity: W-VELOCITY


 Radiation Model Information

   Number of control angles  104
   Time step increment         3
   Angle increment             5
   Theta band N_phi   Solid angle
     1:        4     0.120
     2:       12     0.114
     3:       16     0.127
     4:       20     0.120
     5:       20     0.120
     6:       16     0.127
     7:       12     0.114
     8:        4     0.120
   Using gray gas absorption.
   Mean beam length  1.000E-01 m


 Pressure Zone Information

   1 Volume: 6.0000E+01 m3, Cells: 103823, Mesh: 1, Indices: (47,47,47)
 
 

 Run Time Diagnostics

       Time Step        1   February  5, 2025  15:47:58
       Step Size:    0.768E-01 s, Total Time:      0.077 s
       Pressure Iterations: 1
       Maximum Velocity Error:  0.00E+00 on Mesh 1 at (0,0,0)
       Maximum Pressure Error:  0.62E-05 on Mesh 1 at (4,3,46)
       ---------------------------------------------------------------
       Max CFL number:  0.26E-01 at (44,6,14)
       Max divergence:  0.18E-04 at (27,4,2)
       Min divergence: -0.46E-04 at (44,17,47)
       Max VN number:   0.26E-01 at (14,47,22)
 
       Time Step        2   February  5, 2025  15:47:58
       Step Size:    0.768E-01 s, Total Time:       0.15 s
       Pressure Iterations: 1
       Maximum Velocity Error:  0.17E-17 on Mesh 1 at (0,31,43)
       Maximum Pressure Error:  0.19E-03 on Mesh 1 at (3,2,47)
       ---------------------------------------------------------------
       Max CFL number:  0.29E-01 at (44,16,46)
       Max divergence:  0.34E-04 at (27,4,2)
       Min divergence: -0.12E-03 at (44,17,47)
       Max VN number:   0.26E-01 at (14,47,22)
 
       Time Step        3   February  5, 2025  15:47:59
       Step Size:    0.768E-01 s, Total Time:       0.23 s
       Pressure Iterations: 1
       Maximum Velocity Error:  0.35E-17 on Mesh 1 at (0,31,43)
       Maximum Pressure Error:  0.72E-03 on Mesh 1 at (3,2,47)
       ---------------------------------------------------------------
       Max CFL number:  0.34E-01 at (43,17,1)
       Max divergence:  0.50E-04 at (27,4,2)
       Min divergence: -0.20E-03 at (4,3,47)
       Max VN number:   0.38E-01 at (3,3,47)
 
       Time Step        4   February  5, 2025  15:47:59
       Step Size:    0.768E-01 s, Total Time:       0.31 s
       Pressure Iterations: 1
       Maximum Velocity Error:  0.35E-17 on Mesh 1 at (0,31,43)
       Maximum Pressure Error:  0.15E-02 on Mesh 1 at (4,3,47)
       ---------------------------------------------------------------
       Max CFL number:  0.43E-01 at (43,17,1)
       Max divergence:  0.66E-04 at (27,4,2)
       Min divergence: -0.28E-03 at (4,3,47)
       Max VN number:   0.37E-01 at (42,17,47)
 
       Time Step        5   February  5, 2025  15:48:00
       Step Size:    0.768E-01 s, Total Time:       0.38 s
       Pressure Iterations: 1
       Maximum Velocity Error:  0.69E-17 on Mesh 1 at (16,0,3)
       Maximum Pressure Error:  0.26E-02 on Mesh 1 at (4,3,47)
       ---------------------------------------------------------------
       Max CFL number:  0.52E-01 at (43,17,1)
       Max divergence:  0.81E-04 at (5,47,2)
       Min divergence: -0.35E-03 at (4,3,47)
       Max VN number:   0.50E-01 at (42,17,47)
 
       Time Step        6   February  5, 2025  15:48:00
       Step Size:    0.768E-01 s, Total Time:       0.46 s
       Pressure Iterations: 1
       Maximum Velocity Error:  0.69E-17 on Mesh 1 at (16,0,3)
       Maximum Pressure Error:  0.37E-02 on Mesh 1 at (4,3,47)
       ---------------------------------------------------------------
       Max CFL number:  0.60E-01 at (43,17,1)
       Max divergence:  0.10E-03 at (43,16,1)
       Min divergence: -0.40E-03 at (4,3,47)
       Max VN number:   0.60E-01 at (42,17,47)
 
       Time Step        7   February  5, 2025  15:48:01
       Step Size:    0.768E-01 s, Total Time:       0.54 s
       Pressure Iterations: 1
       Maximum Velocity Error:  0.69E-17 on Mesh 1 at (16,0,3)
       Maximum Pressure Error:  0.47E-02 on Mesh 1 at (4,3,47)
       ---------------------------------------------------------------
       Max CFL number:  0.68E-01 at (43,17,1)
       Max divergence:  0.21E-03 at (43,16,1)
       Min divergence: -0.44E-03 at (4,3,47)
       Max VN number:   0.69E-01 at (42,17,47)
 
       Time Step        8   February  5, 2025  15:48:01
       Step Size:    0.768E-01 s, Total Time:       0.61 s
       Pressure Iterations: 1
       Maximum Velocity Error:  0.69E-17 on Mesh 1 at (0,30,41)
       Maximum Pressure Error:  0.56E-02 on Mesh 1 at (4,3,47)
       ---------------------------------------------------------------
       Max CFL number:  0.75E-01 at (43,17,1)
       Max divergence:  0.34E-03 at (43,16,1)
       Min divergence: -0.45E-03 at (4,3,47)
       Max VN number:   0.77E-01 at (42,17,47)
 
       Time Step        9   February  5, 2025  15:48:02
       Step Size:    0.768E-01 s, Total Time:       0.69 s
       Pressure Iterations: 1
       Maximum Velocity Error:  0.69E-17 on Mesh 1 at (0,30,41)
       Maximum Pressure Error:  0.63E-02 on Mesh 1 at (4,3,47)
       ---------------------------------------------------------------
       Max CFL number:  0.82E-01 at (43,17,1)
       Max divergence:  0.50E-03 at (43,16,1)
       Min divergence: -0.45E-03 at (4,3,47)
       Max VN number:   0.85E-01 at (42,17,47)
 
       Time Step       10   February  5, 2025  15:48:02
       Step Size:    0.768E-01 s, Total Time:       0.77 s
       Pressure Iterations: 1
       Maximum Velocity Error:  0.14E-16 on Mesh 1 at (0,30,41)
       Maximum Pressure Error:  0.66E-02 on Mesh 1 at (4,3,47)
       ---------------------------------------------------------------
       Max CFL number:  0.88E-01 at (43,17,1)
       Max divergence:  0.68E-03 at (43,16,1)
       Min divergence: -0.43E-03 at (4,3,47)
       Max VN number:   0.93E-01 at (42,17,47)
 
       Time Step       20   February  5, 2025  15:48:07
       Step Size:    0.768E-01 s, Total Time:       1.54 s
       Pressure Iterations: 1
       Maximum Velocity Error:  0.42E-16 on Mesh 1 at (16,0,3)
       Maximum Pressure Error:  0.35E-02 on Mesh 1 at (4,3,47)
       ---------------------------------------------------------------
       Max CFL number:  0.12E+00 at (43,17,1)
       Max divergence:  0.76E-02 at (5,4,47)
       Min divergence: -0.22E-02 at (42,18,47)
       Max VN number:   0.14E+00 at (42,17,47)
       Radiation Loss to Boundaries:         0.002 kW
 
       Time Step       30   February  5, 2025  15:48:12
       Step Size:    0.768E-01 s, Total Time:       2.30 s
       Pressure Iterations: 1
       Maximum Velocity Error:  0.42E-16 on Mesh 1 at (16,0,3)
       Maximum Pressure Error:  0.34E-02 on Mesh 1 at (42,17,1)
       ---------------------------------------------------------------
       Max CFL number:  0.16E+00 at (45,18,46)
       Max divergence:  0.41E-02 at (3,2,46)
       Min divergence: -0.99E-03 at (43,15,2)
       Max VN number:   0.81E-01 at (43,15,1)
       Radiation Loss to Boundaries:         0.005 kW
 
       Time Step       40   February  5, 2025  15:48:17
       Step Size:    0.768E-01 s, Total Time:       3.07 s
       Pressure Iterations: 1
       Maximum Velocity Error:  0.42E-16 on Mesh 1 at (16,0,3)
       Maximum Pressure Error:  0.55E-02 on Mesh 1 at (42,17,1)
       ---------------------------------------------------------------
       Max CFL number:  0.24E+00 at (44,16,46)
       Max divergence:  0.38E-02 at (4,2,46)
       Min divergence: -0.14E-02 at (46,17,46)
       Max VN number:   0.16E+00 at (4,1,46)
       Radiation Loss to Boundaries:         0.009 kW
 
       Time Step       50   February  5, 2025  15:48:21
       Step Size:    0.768E-01 s, Total Time:       3.84 s
       Pressure Iterations: 1
       Maximum Velocity Error:  0.56E-16 on Mesh 1 at (43,17,47)
       Maximum Pressure Error:  0.13E-01 on Mesh 1 at (44,17,44)
       ---------------------------------------------------------------
       Max CFL number:  0.37E+00 at (4,3,44)
       Max divergence:  0.50E-02 at (42,15,1)
       Min divergence: -0.21E-02 at (42,15,2)
       Max VN number:   0.16E+00 at (4,1,45)
       Radiation Loss to Boundaries:         0.012 kW
 
       Time Step       60   February  5, 2025  15:48:26
       Step Size:    0.768E-01 s, Total Time:       4.61 s
       Pressure Iterations: 1
       Maximum Velocity Error:  0.83E-16 on Mesh 1 at (19,0,6)
       Maximum Pressure Error:  0.29E-01 on Mesh 1 at (4,3,41)
       ---------------------------------------------------------------
       Max CFL number:  0.58E+00 at (44,17,42)
       Max divergence:  0.49E-02 at (46,15,1)
       Min divergence: -0.24E-02 at (44,17,40)
       Max VN number:   0.25E+00 at (5,1,43)
       Radiation Loss to Boundaries:         0.016 kW
 
       Time Step       70   February  5, 2025  15:48:31
       Step Size:    0.768E-01 s, Total Time:       5.37 s
       Pressure Iterations: 1
       Maximum Velocity Error:  0.83E-16 on Mesh 1 at (19,0,6)
       Maximum Pressure Error:  0.31E-01 on Mesh 1 at (4,3,38)
       ---------------------------------------------------------------
       Max CFL number:  0.67E+00 at (44,17,41)
       Max divergence:  0.44E-02 at (3,3,38)
       Min divergence: -0.21E-02 at (44,17,37)
       Max VN number:   0.18E+00 at (5,1,41)
       Radiation Loss to Boundaries:         0.019 kW
 
       Time Step       80   February  5, 2025  15:48:35
       Step Size:    0.768E-01 s, Total Time:       6.14 s
       Pressure Iterations: 1
       Maximum Velocity Error:  0.83E-16 on Mesh 1 at (19,0,6)
       Maximum Pressure Error:  0.30E-01 on Mesh 1 at (44,17,35)
       ---------------------------------------------------------------
       Max CFL number:  0.71E+00 at (44,17,38)
       Max divergence:  0.48E-02 at (4,2,41)
       Min divergence: -0.18E-02 at (43,17,44)
       Max VN number:   0.16E+00 at (4,2,37)
       Radiation Loss to Boundaries:         0.023 kW
 
       Time Step       90   February  5, 2025  15:48:40
       Step Size:    0.768E-01 s, Total Time:       6.91 s
       Pressure Iterations: 1
       Maximum Velocity Error:  0.83E-16 on Mesh 1 at (19,0,6)
       Maximum Pressure Error:  0.44E-01 on Mesh 1 at (4,2,32)
       ---------------------------------------------------------------
       Max CFL number:  0.76E+00 at (44,17,34)
       Max divergence:  0.48E-02 at (45,17,31)
       Min divergence: -0.31E-02 at (44,17,32)
       Max VN number:   0.19E+00 at (2,1,45)
       Radiation Loss to Boundaries:         0.026 kW
 
       Time Step      100   February  5, 2025  15:48:45
       Step Size:    0.768E-01 s, Total Time:       7.68 s
       Pressure Iterations: 1
       Maximum Velocity Error:  0.83E-16 on Mesh 1 at (19,0,6)
       Maximum Pressure Error:  0.56E-01 on Mesh 1 at (4,2,28)
       ---------------------------------------------------------------
       Max CFL number:  0.82E+00 at (44,17,31)
       Max divergence:  0.66E-02 at (4,2,29)
       Min divergence: -0.25E-02 at (44,17,29)
       Max VN number:   0.23E+00 at (46,17,31)
       Radiation Loss to Boundaries:         0.030 kW
 
       Time Step      200   February  5, 2025  15:49:30
       Step Size:    0.724E-01 s, Total Time:      14.60 s
       Pressure Iterations: 1
       Maximum Velocity Error:  0.14E-15 on Mesh 1 at (45,17,0)
       Maximum Pressure Error:  0.14E+00 on Mesh 1 at (41,17,1)
       ---------------------------------------------------------------
       Max CFL number:  0.84E+00 at (47,17,8)
       Max divergence:  0.55E-02 at (40,17,2)
       Min divergence: -0.52E-02 at (44,17,2)
       Max VN number:   0.66E+00 at (47,13,2)
       Radiation Loss to Boundaries:         0.061 kW
 
       Time Step      300   February  5, 2025  15:50:17
       Step Size:    0.768E-01 s, Total Time:      22.13 s
       Pressure Iterations: 1
       Maximum Velocity Error:  0.17E-15 on Mesh 1 at (45,17,0)
       Maximum Pressure Error:  0.17E+00 on Mesh 1 at (44,17,1)
       ---------------------------------------------------------------
       Max CFL number:  0.79E+00 at (44,17,13)
       Max divergence:  0.44E-02 at (43,18,1)
       Min divergence: -0.34E-02 at (44,18,2)
       Max VN number:   0.90E+00 at (2,1,7)
       Radiation Loss to Boundaries:         0.092 kW
 
       Time Step      400   February  5, 2025  15:51:03
       Step Size:    0.501E-01 s, Total Time:      29.37 s
       Pressure Iterations: 1
       Maximum Velocity Error:  0.17E-15 on Mesh 1 at (45,17,0)
       Maximum Pressure Error:  0.35E-01 on Mesh 1 at (3,1,7)
       ---------------------------------------------------------------
       Max CFL number:  0.56E+00 at (3,1,9)
       Max divergence:  0.43E-02 at (4,3,44)
       Min divergence: -0.29E-02 at (43,17,2)
       Max VN number:   0.77E+00 at (2,1,8)
       Radiation Loss to Boundaries:         0.121 kW
 
       Time Step      500   February  5, 2025  15:51:50
       Step Size:    0.598E-01 s, Total Time:      36.64 s
       Pressure Iterations: 1
       Maximum Velocity Error:  0.15E-15 on Mesh 1 at (45,17,0)
       Maximum Pressure Error:  0.74E-01 on Mesh 1 at (37,17,1)
       ---------------------------------------------------------------
       Max CFL number:  0.59E+00 at (44,17,6)
       Max divergence:  0.42E-02 at (44,17,41)
       Min divergence: -0.26E-02 at (46,15,2)
       Max VN number:   0.90E+00 at (2,1,6)
       Radiation Loss to Boundaries:         0.149 kW
 
       Time Step      600   February  5, 2025  15:52:37
       Step Size:    0.496E-01 s, Total Time:      41.98 s
       Pressure Iterations: 1
       Maximum Velocity Error:  0.17E-15 on Mesh 1 at (45,17,0)
       Maximum Pressure Error:  0.33E-01 on Mesh 1 at (45,17,1)
       ---------------------------------------------------------------
       Max CFL number:  0.47E+00 at (44,17,9)
       Max divergence:  0.48E-02 at (4,3,42)
       Min divergence: -0.36E-02 at (46,19,2)
       Max VN number:   0.82E+00 at (2,1,6)
       Radiation Loss to Boundaries:         0.168 kW
 
       Time Step      700   February  5, 2025  15:53:24
       Step Size:    0.768E-01 s, Total Time:      48.71 s
       Pressure Iterations: 1
       Maximum Velocity Error:  0.17E-15 on Mesh 1 at (45,17,0)
       Maximum Pressure Error:  0.41E-01 on Mesh 1 at (2,6,1)
       ---------------------------------------------------------------
       Max CFL number:  0.73E+00 at (44,17,6)
       Max divergence:  0.45E-02 at (44,17,40)
       Min divergence: -0.34E-02 at (3,4,42)
       Max VN number:   0.67E+00 at (7,1,5)
       Radiation Loss to Boundaries:         0.191 kW
 
       Time Step      800   February  5, 2025  15:54:10
       Step Size:    0.666E-01 s, Total Time:      55.80 s
       Pressure Iterations: 1
       Maximum Velocity Error:  0.17E-15 on Mesh 1 at (45,17,0)
       Maximum Pressure Error:  0.33E-01 on Mesh 1 at (7,1,1)
       ---------------------------------------------------------------
       Max CFL number:  0.64E+00 at (44,16,6)
       Max divergence:  0.50E-02 at (4,2,46)
       Min divergence: -0.33E-02 at (46,18,2)
       Max VN number:   0.81E+00 at (2,1,5)
       Radiation Loss to Boundaries:         0.214 kW
 
       Time Step      900   February  5, 2025  15:54:57
       Step Size:    0.736E-01 s, Total Time:      63.05 s
       Pressure Iterations: 1
       Maximum Velocity Error:  0.17E-15 on Mesh 1 at (45,17,0)
       Maximum Pressure Error:  0.46E-01 on Mesh 1 at (42,15,1)
       ---------------------------------------------------------------
       Max CFL number:  0.67E+00 at (3,1,14)
       Max divergence:  0.64E-02 at (4,3,42)
       Min divergence: -0.46E-02 at (3,3,38)
       Max VN number:   0.76E+00 at (3,1,6)
       Radiation Loss to Boundaries:         0.237 kW
 
       Time Step     1000   February  5, 2025  15:55:43
       Step Size:    0.768E-01 s, Total Time:      70.37 s
       Pressure Iterations: 1
       Maximum Velocity Error:  0.17E-15 on Mesh 1 at (45,17,0)
       Maximum Pressure Error:  0.41E-01 on Mesh 1 at (44,14,1)
       ---------------------------------------------------------------
       Max CFL number:  0.59E+00 at (43,15,21)
       Max divergence:  0.68E-02 at (44,16,1)
       Min divergence: -0.54E-02 at (45,16,46)
       Max VN number:   0.87E+00 at (2,1,11)
       Radiation Loss to Boundaries:         0.258 kW
 
       Time Step     1100   February  5, 2025  15:56:30
       Step Size:    0.768E-01 s, Total Time:      78.00 s
       Pressure Iterations: 1
       Maximum Velocity Error:  0.17E-15 on Mesh 1 at (45,17,0)
       Maximum Pressure Error:  0.40E-01 on Mesh 1 at (11,10,1)
       ---------------------------------------------------------------
       Max CFL number:  0.72E+00 at (42,18,27)
       Max divergence:  0.50E-02 at (4,3,40)
       Min divergence: -0.45E-02 at (45,16,46)
       Max VN number:   0.55E+00 at (12,1,3)
       Radiation Loss to Boundaries:         0.280 kW
 
       Time Step     1200   February  5, 2025  15:57:16
       Step Size:    0.768E-01 s, Total Time:      85.48 s
       Pressure Iterations: 1
       Maximum Velocity Error:  0.19E-15 on Mesh 1 at (45,17,47)
       Maximum Pressure Error:  0.44E-01 on Mesh 1 at (40,15,1)
       ---------------------------------------------------------------
       Max CFL number:  0.66E+00 at (3,3,14)
       Max divergence:  0.77E-02 at (45,18,1)
       Min divergence: -0.41E-02 at (45,18,2)
       Max VN number:   0.65E+00 at (2,1,7)
       Radiation Loss to Boundaries:         0.300 kW
 
       Time Step     1300   February  5, 2025  15:58:02
       Step Size:    0.768E-01 s, Total Time:      93.16 s
       Pressure Iterations: 1
       Maximum Velocity Error:  0.19E-15 on Mesh 1 at (45,17,47)
       Maximum Pressure Error:  0.33E-01 on Mesh 1 at (3,1,23)
       ---------------------------------------------------------------
       Max CFL number:  0.65E+00 at (5,2,15)
       Max divergence:  0.72E-02 at (43,16,47)
       Min divergence: -0.59E-02 at (45,16,46)
       Max VN number:   0.56E+00 at (5,1,7)
       Radiation Loss to Boundaries:         0.319 kW
 
       Time Step     1400   February  5, 2025  15:58:49
       Step Size:    0.768E-01 s, Total Time:     100.83 s
       Pressure Iterations: 1
       Maximum Velocity Error:  0.19E-15 on Mesh 1 at (45,17,47)
       Maximum Pressure Error:  0.37E-01 on Mesh 1 at (3,5,1)
       ---------------------------------------------------------------
       Max CFL number:  0.68E+00 at (44,16,21)
       Max divergence:  0.67E-02 at (45,16,1)
       Min divergence: -0.60E-02 at (44,17,2)
       Max VN number:   0.73E+00 at (11,1,5)
       Radiation Loss to Boundaries:         0.338 kW
 
       Time Step     1500   February  5, 2025  15:59:35
       Step Size:    0.768E-01 s, Total Time:     108.51 s
       Pressure Iterations: 1
       Maximum Velocity Error:  0.19E-15 on Mesh 1 at (45,17,47)
       Maximum Pressure Error:  0.39E-01 on Mesh 1 at (46,21,1)
       ---------------------------------------------------------------
       Max CFL number:  0.60E+00 at (3,3,30)
       Max divergence:  0.66E-02 at (45,18,1)
       Min divergence: -0.51E-02 at (5,2,46)
       Max VN number:   0.54E+00 at (1,5,2)
       Radiation Loss to Boundaries:         0.355 kW
 
       Time Step     1600   February  5, 2025  16:00:23
       Step Size:    0.768E-01 s, Total Time:     116.19 s
       Pressure Iterations: 1
       Maximum Velocity Error:  0.19E-15 on Mesh 1 at (45,17,47)
       Maximum Pressure Error:  0.40E-01 on Mesh 1 at (1,3,28)
       ---------------------------------------------------------------
       Max CFL number:  0.65E+00 at (46,17,12)
       Max divergence:  0.81E-02 at (43,16,1)
       Min divergence: -0.52E-02 at (5,2,46)
       Max VN number:   0.85E+00 at (3,1,9)
       Radiation Loss to Boundaries:         0.371 kW
 
       Time Step     1700   February  5, 2025  16:01:10
       Step Size:    0.768E-01 s, Total Time:     123.87 s
       Pressure Iterations: 1
       Maximum Velocity Error:  0.19E-15 on Mesh 1 at (45,17,47)
       Maximum Pressure Error:  0.50E-01 on Mesh 1 at (43,15,1)
       ---------------------------------------------------------------
       Max CFL number:  0.65E+00 at (1,5,9)
       Max divergence:  0.70E-02 at (43,16,1)
       Min divergence: -0.51E-02 at (5,2,46)
       Max VN number:   0.77E+00 at (1,5,8)
       Radiation Loss to Boundaries:         0.386 kW
 
       Time Step     1800   February  5, 2025  16:01:57
       Step Size:    0.768E-01 s, Total Time:     131.55 s
       Pressure Iterations: 1
       Maximum Velocity Error:  0.19E-15 on Mesh 1 at (45,17,47)
       Maximum Pressure Error:  0.68E-01 on Mesh 1 at (1,6,1)
       ---------------------------------------------------------------
       Max CFL number:  0.63E+00 at (44,17,28)
       Max divergence:  0.53E-02 at (3,2,46)
       Min divergence: -0.41E-02 at (45,17,2)
       Max VN number:   0.50E+00 at (25,1,5)
       Radiation Loss to Boundaries:         0.400 kW
 
       Time Step     1900   February  5, 2025  16:02:44
       Step Size:    0.768E-01 s, Total Time:     139.23 s
       Pressure Iterations: 1
       Maximum Velocity Error:  0.19E-15 on Mesh 1 at (45,17,47)
       Maximum Pressure Error:  0.51E-01 on Mesh 1 at (1,3,21)
       ---------------------------------------------------------------
       Max CFL number:  0.62E+00 at (1,3,22)
       Max divergence:  0.46E-02 at (5,4,47)
       Min divergence: -0.28E-02 at (46,17,2)
       Max VN number:   0.52E+00 at (47,17,2)
       Radiation Loss to Boundaries:         0.414 kW
 
       Time Step     2000   February  5, 2025  16:03:31
       Step Size:    0.768E-01 s, Total Time:     146.90 s
       Pressure Iterations: 1
       Maximum Velocity Error:  0.19E-15 on Mesh 1 at (45,17,47)
       Maximum Pressure Error:  0.82E-01 on Mesh 1 at (5,3,1)
       ---------------------------------------------------------------
       Max CFL number:  0.69E+00 at (43,18,10)
       Max divergence:  0.54E-02 at (45,18,1)
       Min divergence: -0.46E-02 at (4,3,43)
       Max VN number:   0.80E+00 at (6,1,13)
       Radiation Loss to Boundaries:         0.427 kW
 
       Time Step     2100   February  5, 2025  16:04:17
       Step Size:    0.768E-01 s, Total Time:     154.58 s
       Pressure Iterations: 1
       Maximum Velocity Error:  0.19E-15 on Mesh 1 at (45,17,47)
       Maximum Pressure Error:  0.46E-01 on Mesh 1 at (45,15,1)
       ---------------------------------------------------------------
       Max CFL number:  0.62E+00 at (45,16,15)
       Max divergence:  0.41E-02 at (44,16,43)
       Min divergence: -0.33E-02 at (43,17,37)
       Max VN number:   0.59E+00 at (3,1,17)
       Radiation Loss to Boundaries:         0.439 kW
 
       Time Step     2200   February  5, 2025  16:05:04
       Step Size:    0.768E-01 s, Total Time:     162.26 s
       Pressure Iterations: 1
       Maximum Velocity Error:  0.19E-15 on Mesh 1 at (45,17,47)
       Maximum Pressure Error:  0.44E-01 on Mesh 1 at (1,4,25)
       ---------------------------------------------------------------
       Max CFL number:  0.59E+00 at (1,3,19)
       Max divergence:  0.50E-02 at (42,18,1)
       Min divergence: -0.31E-02 at (4,2,44)
       Max VN number:   0.49E+00 at (7,1,18)
       Radiation Loss to Boundaries:         0.450 kW
 
       Time Step     2300   February  5, 2025  16:05:51
       Step Size:    0.768E-01 s, Total Time:     169.94 s
       Pressure Iterations: 1
       Maximum Velocity Error:  0.14E-15 on Mesh 1 at (45,17,0)
       Maximum Pressure Error:  0.51E-01 on Mesh 1 at (1,10,1)
       ---------------------------------------------------------------
       Max CFL number:  0.62E+00 at (42,17,10)
       Max divergence:  0.59E-02 at (43,19,1)
       Min divergence: -0.43E-02 at (44,18,2)
       Max VN number:   0.47E+00 at (1,10,2)
       Radiation Loss to Boundaries:         0.461 kW
 
       Time Step     2400   February  5, 2025  16:06:38
       Step Size:    0.768E-01 s, Total Time:     177.62 s
       Pressure Iterations: 1
       Maximum Velocity Error:  0.14E-15 on Mesh 1 at (45,17,0)
       Maximum Pressure Error:  0.37E-01 on Mesh 1 at (44,25,1)
       ---------------------------------------------------------------
       Max CFL number:  0.58E+00 at (45,16,29)
       Max divergence:  0.45E-02 at (4,3,42)
       Min divergence: -0.31E-02 at (45,18,2)
       Max VN number:   0.57E+00 at (1,3,3)
       Radiation Loss to Boundaries:         0.471 kW
 
       Time Step     2500   February  5, 2025  16:07:25
       Step Size:    0.768E-01 s, Total Time:     185.24 s
       Pressure Iterations: 1
       Maximum Velocity Error:  0.19E-15 on Mesh 1 at (45,17,0)
       Maximum Pressure Error:  0.57E-01 on Mesh 1 at (9,1,1)
       ---------------------------------------------------------------
       Max CFL number:  0.58E+00 at (47,16,10)
       Max divergence:  0.47E-02 at (3,2,46)
       Min divergence: -0.42E-02 at (5,2,46)
       Max VN number:   0.61E+00 at (1,3,5)
       Radiation Loss to Boundaries:         0.481 kW
 
       Time Step     2600   February  5, 2025  16:08:11
       Step Size:    0.768E-01 s, Total Time:     192.87 s
       Pressure Iterations: 1
       Maximum Velocity Error:  0.17E-15 on Mesh 1 at (19,0,3)
       Maximum Pressure Error:  0.37E-01 on Mesh 1 at (1,5,26)
       ---------------------------------------------------------------
       Max CFL number:  0.56E+00 at (1,5,25)
       Max divergence:  0.42E-02 at (42,16,1)
       Min divergence: -0.50E-02 at (5,2,46)
       Max VN number:   0.58E+00 at (5,1,10)
       Radiation Loss to Boundaries:         0.489 kW
 
       Time Step     2700   February  5, 2025  16:08:58
       Step Size:    0.768E-01 s, Total Time:     200.55 s
       Pressure Iterations: 1
       Maximum Velocity Error:  0.17E-15 on Mesh 1 at (19,0,3)
       Maximum Pressure Error:  0.53E-01 on Mesh 1 at (1,8,9)
       ---------------------------------------------------------------
       Max CFL number:  0.66E+00 at (1,9,13)
       Max divergence:  0.46E-02 at (43,19,1)
       Min divergence: -0.52E-02 at (5,3,46)
       Max VN number:   0.50E+00 at (1,7,8)
       Radiation Loss to Boundaries:         0.498 kW
 
       Time Step     2800   February  5, 2025  16:09:45
       Step Size:    0.768E-01 s, Total Time:     208.23 s
       Pressure Iterations: 1
       Maximum Velocity Error:  0.17E-15 on Mesh 1 at (19,0,3)
       Maximum Pressure Error:  0.36E-01 on Mesh 1 at (1,9,18)
       ---------------------------------------------------------------
       Max CFL number:  0.61E+00 at (45,18,27)
       Max divergence:  0.69E-02 at (3,4,47)
       Min divergence: -0.43E-02 at (2,4,47)
       Max VN number:   0.33E+00 at (1,9,4)
       Radiation Loss to Boundaries:         0.506 kW
 
       Time Step     2900   February  5, 2025  16:10:32
       Step Size:    0.768E-01 s, Total Time:     215.91 s
       Pressure Iterations: 1
       Maximum Velocity Error:  0.17E-15 on Mesh 1 at (19,0,3)
       Maximum Pressure Error:  0.78E-01 on Mesh 1 at (47,18,6)
       ---------------------------------------------------------------
       Max CFL number:  0.64E+00 at (47,18,5)
       Max divergence:  0.70E-02 at (43,17,1)
       Min divergence: -0.36E-02 at (44,16,2)
       Max VN number:   0.61E+00 at (2,1,19)
       Radiation Loss to Boundaries:         0.513 kW
 
       Time Step     3000   February  5, 2025  16:11:17
       Step Size:    0.768E-01 s, Total Time:     223.58 s
       Pressure Iterations: 1
       Maximum Velocity Error:  0.17E-15 on Mesh 1 at (19,0,3)
       Maximum Pressure Error:  0.42E-01 on Mesh 1 at (42,15,1)
       ---------------------------------------------------------------
       Max CFL number:  0.61E+00 at (1,2,20)
       Max divergence:  0.40E-02 at (45,18,47)
       Min divergence: -0.24E-02 at (43,18,41)
       Max VN number:   0.65E+00 at (3,1,8)
       Radiation Loss to Boundaries:         0.520 kW
 
       Time Step     3100   February  5, 2025  16:12:02
       Step Size:    0.768E-01 s, Total Time:     231.26 s
       Pressure Iterations: 1
       Maximum Velocity Error:  0.17E-15 on Mesh 1 at (19,0,3)
       Maximum Pressure Error:  0.54E-01 on Mesh 1 at (1,4,14)
       ---------------------------------------------------------------
       Max CFL number:  0.60E+00 at (1,4,15)
       Max divergence:  0.48E-02 at (4,4,47)
       Min divergence: -0.59E-02 at (4,4,46)
       Max VN number:   0.50E+00 at (3,1,2)
       Radiation Loss to Boundaries:         0.526 kW
 
       Time Step     3200   February  5, 2025  16:12:49
       Step Size:    0.768E-01 s, Total Time:     238.94 s
       Pressure Iterations: 1
       Maximum Velocity Error:  0.17E-15 on Mesh 1 at (19,0,3)
       Maximum Pressure Error:  0.72E-01 on Mesh 1 at (42,15,1)
       ---------------------------------------------------------------
       Max CFL number:  0.64E+00 at (2,1,9)
       Max divergence:  0.40E-02 at (44,17,35)
       Min divergence: -0.26E-02 at (5,4,44)
       Max VN number:   0.59E+00 at (4,1,5)
       Radiation Loss to Boundaries:         0.532 kW
 
       Time Step     3300   February  5, 2025  16:13:35
       Step Size:    0.768E-01 s, Total Time:     246.62 s
       Pressure Iterations: 1
       Maximum Velocity Error:  0.17E-15 on Mesh 1 at (19,0,3)
       Maximum Pressure Error:  0.43E-01 on Mesh 1 at (1,3,25)
       ---------------------------------------------------------------
       Max CFL number:  0.61E+00 at (44,15,8)
       Max divergence:  0.50E-02 at (43,16,47)
       Min divergence: -0.27E-02 at (2,3,42)
       Max VN number:   0.48E+00 at (1,5,23)
       Radiation Loss to Boundaries:         0.538 kW
 
       Time Step     3400   February  5, 2025  16:14:22
       Step Size:    0.768E-01 s, Total Time:     254.30 s
       Pressure Iterations: 1
       Maximum Velocity Error:  0.17E-15 on Mesh 1 at (19,0,3)
       Maximum Pressure Error:  0.11E+00 on Mesh 1 at (42,16,1)
       ---------------------------------------------------------------
       Max CFL number:  0.57E+00 at (42,16,2)
       Max divergence:  0.73E-02 at (45,18,1)
       Min divergence: -0.41E-02 at (4,3,43)
       Max VN number:   0.38E+00 at (43,1,46)
       Radiation Loss to Boundaries:         0.543 kW
 
       Time Step     3500   February  5, 2025  16:15:08
       Step Size:    0.768E-01 s, Total Time:     261.98 s
       Pressure Iterations: 1
       Maximum Velocity Error:  0.17E-15 on Mesh 1 at (19,0,3)
       Maximum Pressure Error:  0.32E-01 on Mesh 1 at (1,5,1)
       ---------------------------------------------------------------
       Max CFL number:  0.67E+00 at (45,16,15)
       Max divergence:  0.65E-02 at (5,2,46)
       Min divergence: -0.58E-02 at (4,2,46)
       Max VN number:   0.38E+00 at (43,1,45)
       Radiation Loss to Boundaries:         0.548 kW
 
       Time Step     3600   February  5, 2025  16:15:55
       Step Size:    0.768E-01 s, Total Time:     269.65 s
       Pressure Iterations: 1
       Maximum Velocity Error:  0.17E-15 on Mesh 1 at (19,0,3)
       Maximum Pressure Error:  0.81E-01 on Mesh 1 at (47,19,1)
       ---------------------------------------------------------------
       Max CFL number:  0.59E+00 at (46,17,8)
       Max divergence:  0.49E-02 at (42,16,1)
       Min divergence: -0.31E-02 at (4,4,40)
       Max VN number:   0.61E+00 at (6,1,10)
       Radiation Loss to Boundaries:         0.553 kW
 
       Time Step     3700   February  5, 2025  16:16:42
       Step Size:    0.768E-01 s, Total Time:     277.33 s
       Pressure Iterations: 1
       Maximum Velocity Error:  0.17E-15 on Mesh 1 at (19,0,3)
       Maximum Pressure Error:  0.65E-01 on Mesh 1 at (1,1,15)
       ---------------------------------------------------------------
       Max CFL number:  0.57E+00 at (1,4,19)
       Max divergence:  0.35E-02 at (3,3,47)
       Min divergence: -0.31E-02 at (5,2,46)
       Max VN number:   0.46E+00 at (40,47,39)
       Radiation Loss to Boundaries:         0.557 kW
 
       Time Step     3800   February  5, 2025  16:17:29
       Step Size:    0.768E-01 s, Total Time:     285.01 s
       Pressure Iterations: 1
       Maximum Velocity Error:  0.17E-15 on Mesh 1 at (19,0,3)
       Maximum Pressure Error:  0.11E+00 on Mesh 1 at (47,14,1)
       ---------------------------------------------------------------
       Max CFL number:  0.60E+00 at (1,6,8)
       Max divergence:  0.40E-02 at (3,2,47)
       Min divergence: -0.35E-02 at (43,17,42)
       Max VN number:   0.63E+00 at (6,1,9)
       Radiation Loss to Boundaries:         0.561 kW
 
       Time Step     3900   February  5, 2025  16:18:15
       Step Size:    0.768E-01 s, Total Time:     292.69 s
       Pressure Iterations: 1
       Maximum Velocity Error:  0.17E-15 on Mesh 1 at (19,0,3)
       Maximum Pressure Error:  0.72E-01 on Mesh 1 at (1,8,1)
       ---------------------------------------------------------------
       Max CFL number:  0.56E+00 at (1,4,7)
       Max divergence:  0.75E-02 at (3,4,47)
       Min divergence: -0.51E-02 at (2,4,47)
       Max VN number:   0.70E+00 at (1,2,10)
       Radiation Loss to Boundaries:         0.564 kW
 
       Time Step     4000   February  5, 2025  16:19:02
       Step Size:    0.768E-01 s, Total Time:     300.37 s
       Pressure Iterations: 1
       Maximum Velocity Error:  0.17E-15 on Mesh 1 at (19,0,3)
       Maximum Pressure Error:  0.50E-01 on Mesh 1 at (1,1,25)
       ---------------------------------------------------------------
       Max CFL number:  0.61E+00 at (2,2,24)
       Max divergence:  0.50E-02 at (42,18,1)
       Min divergence: -0.32E-02 at (5,2,46)
       Max VN number:   0.91E+00 at (2,1,16)
       Radiation Loss to Boundaries:         0.568 kW
 
       Time Step     4100   February  5, 2025  16:19:48
       Step Size:    0.768E-01 s, Total Time:     308.01 s
       Pressure Iterations: 1
       Maximum Velocity Error:  0.17E-15 on Mesh 1 at (19,0,3)
       Maximum Pressure Error:  0.97E-01 on Mesh 1 at (41,16,1)
       ---------------------------------------------------------------
       Max CFL number:  0.59E+00 at (1,2,15)
       Max divergence:  0.58E-02 at (42,17,1)
       Min divergence: -0.28E-02 at (5,2,46)
       Max VN number:   0.54E+00 at (1,2,4)
       Radiation Loss to Boundaries:         0.571 kW
 
       Time Step     4200   February  5, 2025  16:20:35
       Step Size:    0.768E-01 s, Total Time:     315.69 s
       Pressure Iterations: 1
       Maximum Velocity Error:  0.17E-15 on Mesh 1 at (19,0,3)
       Maximum Pressure Error:  0.61E-01 on Mesh 1 at (13,1,1)
       ---------------------------------------------------------------
       Max CFL number:  0.56E+00 at (1,3,8)
       Max divergence:  0.43E-02 at (4,2,46)
       Min divergence: -0.23E-02 at (44,17,2)
       Max VN number:   0.45E+00 at (1,6,13)
       Radiation Loss to Boundaries:         0.574 kW
 
       Time Step     4300   February  5, 2025  16:21:22
       Step Size:    0.768E-01 s, Total Time:     323.37 s
       Pressure Iterations: 1
       Maximum Velocity Error:  0.17E-15 on Mesh 1 at (19,0,3)
       Maximum Pressure Error:  0.61E-01 on Mesh 1 at (47,23,1)
       ---------------------------------------------------------------
       Max CFL number:  0.59E+00 at (3,4,19)
       Max divergence:  0.36E-02 at (4,2,46)
       Min divergence: -0.18E-02 at (44,18,2)
       Max VN number:   0.46E+00 at (2,47,46)
       Radiation Loss to Boundaries:         0.577 kW
 
       Time Step     4400   February  5, 2025  16:22:08
       Step Size:    0.768E-01 s, Total Time:     331.05 s
       Pressure Iterations: 1
       Maximum Velocity Error:  0.26E-15 on Mesh 1 at (3,4,47)
       Maximum Pressure Error:  0.24E-01 on Mesh 1 at (1,1,8)
       ---------------------------------------------------------------
       Max CFL number:  0.65E+00 at (5,3,31)
       Max divergence:  0.33E-02 at (44,17,40)
       Min divergence: -0.24E-02 at (44,17,2)
       Max VN number:   0.55E+00 at (2,1,6)
       Radiation Loss to Boundaries:         0.579 kW
 
       Time Step     4500   February  5, 2025  16:22:55
       Step Size:    0.768E-01 s, Total Time:     338.73 s
       Pressure Iterations: 1
       Maximum Velocity Error:  0.26E-15 on Mesh 1 at (4,2,47)
       Maximum Pressure Error:  0.56E-01 on Mesh 1 at (1,3,11)
       ---------------------------------------------------------------
       Max CFL number:  0.61E+00 at (1,3,9)
       Max divergence:  0.54E-02 at (43,19,1)
       Min divergence: -0.21E-02 at (43,19,2)
       Max VN number:   0.45E+00 at (25,47,45)
       Radiation Loss to Boundaries:         0.581 kW
 
       Time Step     4600   February  5, 2025  16:23:42
       Step Size:    0.768E-01 s, Total Time:     346.40 s
       Pressure Iterations: 1
       Maximum Velocity Error:  0.26E-15 on Mesh 1 at (4,2,47)
       Maximum Pressure Error:  0.29E-01 on Mesh 1 at (47,17,1)
       ---------------------------------------------------------------
       Max CFL number:  0.56E+00 at (2,3,17)
       Max divergence:  0.33E-02 at (44,17,39)
       Min divergence: -0.25E-02 at (43,17,2)
       Max VN number:   0.49E+00 at (47,14,9)
       Radiation Loss to Boundaries:         0.584 kW
 
       Time Step     4700   February  5, 2025  16:24:28
       Step Size:    0.768E-01 s, Total Time:     354.08 s
       Pressure Iterations: 1
       Maximum Velocity Error:  0.26E-15 on Mesh 1 at (43,18,0)
       Maximum Pressure Error:  0.39E-01 on Mesh 1 at (1,3,5)
       ---------------------------------------------------------------
       Max CFL number:  0.54E+00 at (46,17,14)
       Max divergence:  0.57E-02 at (42,17,1)
       Min divergence: -0.23E-02 at (42,17,2)
       Max VN number:   0.60E+00 at (5,1,6)
       Radiation Loss to Boundaries:         0.586 kW
 
       Time Step     4800   February  5, 2025  16:25:16
       Step Size:    0.768E-01 s, Total Time:     361.76 s
       Pressure Iterations: 1
       Maximum Velocity Error:  0.26E-15 on Mesh 1 at (43,18,0)
       Maximum Pressure Error:  0.38E-01 on Mesh 1 at (47,17,7)
       ---------------------------------------------------------------
       Max CFL number:  0.55E+00 at (47,17,8)
       Max divergence:  0.32E-02 at (43,18,47)
       Min divergence: -0.20E-02 at (3,2,45)
       Max VN number:   0.85E+00 at (3,1,6)
       Radiation Loss to Boundaries:         0.588 kW
 
       Time Step     4900   February  5, 2025  16:26:03
       Step Size:    0.768E-01 s, Total Time:     369.44 s
       Pressure Iterations: 1
       Maximum Velocity Error:  0.26E-15 on Mesh 1 at (43,18,0)
       Maximum Pressure Error:  0.31E-01 on Mesh 1 at (5,1,1)
       ---------------------------------------------------------------
       Max CFL number:  0.58E+00 at (46,15,22)
       Max divergence:  0.53E-02 at (44,19,1)
       Min divergence: -0.47E-02 at (4,2,46)
       Max VN number:   0.66E+00 at (6,1,3)
       Radiation Loss to Boundaries:         0.589 kW
 
       Time Step     5000   February  5, 2025  16:26:49
       Step Size:    0.768E-01 s, Total Time:     377.12 s
       Pressure Iterations: 1
       Maximum Velocity Error:  0.26E-15 on Mesh 1 at (43,18,0)
       Maximum Pressure Error:  0.15E+00 on Mesh 1 at (47,13,1)
       ---------------------------------------------------------------
       Max CFL number:  0.60E+00 at (6,3,22)
       Max divergence:  0.42E-02 at (42,16,1)
       Min divergence: -0.38E-02 at (3,2,46)
       Max VN number:   0.49E+00 at (32,47,46)
       Radiation Loss to Boundaries:         0.591 kW
 
       Time Step     5100   February  5, 2025  16:27:36
       Step Size:    0.768E-01 s, Total Time:     384.80 s
       Pressure Iterations: 1
       Maximum Velocity Error:  0.26E-15 on Mesh 1 at (43,18,0)
       Maximum Pressure Error:  0.65E-01 on Mesh 1 at (47,13,1)
       ---------------------------------------------------------------
       Max CFL number:  0.65E+00 at (47,13,6)
       Max divergence:  0.44E-02 at (45,18,47)
       Min divergence: -0.23E-02 at (46,18,47)
       Max VN number:   0.79E+00 at (5,1,11)
       Radiation Loss to Boundaries:         0.593 kW
 
       Time Step     5200   February  5, 2025  16:28:23
       Step Size:    0.768E-01 s, Total Time:     392.47 s
       Pressure Iterations: 1
       Maximum Velocity Error:  0.26E-15 on Mesh 1 at (43,18,0)
       Maximum Pressure Error:  0.51E-01 on Mesh 1 at (47,16,9)
       ---------------------------------------------------------------
       Max CFL number:  0.60E+00 at (47,16,7)
       Max divergence:  0.50E-02 at (4,3,43)
       Min divergence: -0.32E-02 at (5,3,42)
       Max VN number:   0.60E+00 at (8,1,11)
       Radiation Loss to Boundaries:         0.594 kW
 
       Time Step     5299   February  5, 2025  16:29:09
       Step Size:    0.490E-03 s, Total Time:     400.00 s
       Pressure Iterations: 1
       Maximum Velocity Error:  0.26E-15 on Mesh 1 at (43,18,0)
       Maximum Pressure Error:  0.77E-02 on Mesh 1 at (47,16,1)
       ---------------------------------------------------------------
       Max CFL number:  0.31E-02 at (47,19,4)
       Max divergence:  0.82E-02 at (45,18,47)
       Min divergence: -0.54E-02 at (46,18,47)
       Max VN number:   0.40E-02 at (2,1,19)
       Radiation Loss to Boundaries:         0.595 kW
 


 Time Stepping Wall Clock Time (s):     2472.925
 Total Elapsed Wall Clock Time (s):     2480.058

STOP: FDS completed successfully (CHID: 2)
